test.m
function mpc = test
%TEST

%% MATPOWER Case Format : Version 2
mpc.version = '2';

%%-----  Power Flow Data  -----%%
%% system MVA base
mpc.baseMVA = 100;

%% bus data
%	bus_i	type	Pd	Qd	Gs	Bs	area	Vm	Va	baseKV	zone	Vmax	Vmin	lam_P	lam_Q	mu_Vmax	mu_Vmin
mpc.bus = [
	1	2	0	0	0	0	1	1.07761705	2.80378463	230	1	1.1	0.9	16.9351	0.3570	0.0000	0.0000;
	2	1	300	98.61	0	0	1	1.08406403	-0.734648317	230	1	1.1	0.9	26.5499	0.3674	0.0000	0.0000;
	3	2	300	98.61	0	0	1	1.09999926	-0.559730111	230	1	1.1	0.9	30.0000	0.1051	156.8866	0.0000;
	4	3	400	131.47	0	0	1	1.0641367	0	230	1	1.1	0.9	39.7121	-0.0000	0.0000	0.0000;
	5	2	0	0	0	0	1	1.06907011	3.59035141	230	1	1.1	0.9	10.0000	-0.0000	0.0000	0.0000;
];

%% generator data
%	bus	Pg	Qg	Qmax	Qmin	Vg	mBase	status	Pmax	Pmin	Pc1	Pc2	Qc1min	Qc1max	Qc2min	Qc2max	ramp_agc	ramp_10	ramp_30	ramp_q	apf	mu_Pmax	mu_Pmin	mu_Qmax	mu_Qmin
mpc.gen = [
	1	39.9999603	29.9996735	30	-30	1.07761705	100	1	40	0	0	0	0	0	0	0	0	0	0	0	0	2.9351	0.0000	0.3570	0.0000;
	1	169.99994	127.499674	127.5	-127.5	1.07761705	100	1	170	0	0	0	0	0	0	0	0	0	0	0	0	1.9351	0.0000	0.3570	0.0000;
	3	324.49796	389.998889	390	-390	1.09999926	100	1	520	0	0	0	0	0	0	0	0	0	0	0	0	0.0000	0.0000	0.1051	0.0000;
	4	0.000405003761	-10.8014543	150	-150	1.0641367	100	1	200	0	0	0	0	0	0	0	0	0	0	0	0	0.0000	0.2879	0.0000	0.0000;
	5	470.69383	-165.038477	450	-450	1.06907011	100	1	600	0	0	0	0	0	0	0	0	0	0	0	0	0.0000	0.0000	0.0000	0.0000;
];

%% branch data
%	fbus	tbus	r	x	b	rateA	rateB	rateC	ratio	angle	status	angmin	angmax	Pf	Qf	Pt	Qt	mu_Sf	mu_St	mu_angmin	mu_angmax
mpc.branch = [
	1	2	0.00281	0.0281	0.00712	400	400	400	0	0	1	-360	360	252.3779	-42.4496	-250.7938	57.4581	0.0000	0.0000	0.0000	0.0000;
	1	4	0.00304	0.0304	0.00658	0	0	0	0	0	1	-360	360	187.8686	33.1317	-186.9153	-24.3527	0.0000	0.0000	0.0000	0.0000;
	1	5	0.00064	0.0064	0.03126	0	0	0	0	0	1	-360	360	-230.2466	166.8172	230.6955	-165.9296	0.0000	0.0000	0.0000	0.0000;
	2	3	0.00108	0.0108	0.01852	0	0	0	0	0	1	-360	360	-49.2062	-156.0681	49.4491	156.2892	0.0000	0.0000	0.0000	0.0000;
	3	4	0.00297	0.0297	0.00674	0	0	0	0	0	1	-360	360	-24.9512	135.0996	25.4172	-131.2291	0.0000	0.0000	0.0000	0.0000;
	4	5	0.00297	0.0297	0.00674	240	240	240	0	0	1	-360	360	-238.5015	13.3104	239.9983	0.8912	0.0000	61.3108	0.0000	0.0000;
];

%%-----  OPF Data  -----%%
%% generator cost data
%	1	startup	shutdown	n	x1	y1	...	xn	yn
%	2	startup	shutdown	n	c(n-1)	...	c0
mpc.gencost = [
	2	0	0	2	14	0;
	2	0	0	2	15	0;
	2	0	0	2	30	0;
	2	0	0	2	40	0;
	2	0	0	2	10	0;
];
